_stability_analysis/stability_analysis/data/raw/ACTIVSg2000_solved_noShunts.raw
@!IC, SBASE,REV,XFRRAT,NXFRAT,BASFRQ
0,   100.00, 34,     0,     0, 50.00     / PSS(R)E-34.8    THU, JUL 27 2023  15:41
THIS IS A SYNTHETIC POWER SYSTEM MODEL THAT DOES NOT REPRESE
DATA RESEARCH PROJECT AND CONTAINS NO CEII.
GENERAL, THRSHZ=0.0001, PQBRAK=0.7, BLOWUP=5.0
GAUSS, ITMX=100, ACCP=1.6, ACCQ=1.6, ACCM=1.0, TOL=0.0001
NEWTON, ITMXN=20, ACCN=1.0, TOLN=0.1, VCTOLQ=0.1, VCTOLV=0.00001, DVLIM=0.99, NDVFCT=0.99
ADJUST, ADJTHR=0.005, ACCTAP=1.0, TAPLIM=0.05, SWVBND=100.0, MXTPSS=99, MXSWIM=10
TYSL, ITMXTY=20, ACCTY=1.0, TOLTY=0.00001
SOLVER, FNSL, ACTAPS=0, AREAIN=0, PHSHFT=0, DCTAPS=1, SWSHNT=1, FLATST=0, VARLIM=-1, NONDIV=0
RATING, 1, "RATE1 ", "RATING SET 1                    "
RATING, 2, "RATE2 ", "RATING SET 2                    "
RATING, 3, "RATE3 ", "RATING SET 3                    "
RATING, 4, "RATE4 ", "RATING SET 4                    "
RATING, 5, "RATE5 ", "RATING SET 5                    "
RATING, 6, "RATE6 ", "RATING SET 6                    "
RATING, 7, "RATE7 ", "RATING SET 7                    "
RATING, 8, "RATE8 ", "RATING SET 8                    "
RATING, 9, "RATE9 ", "RATING SET 9                    "
RATING,10, "RATE10", "RATING SET 10                   "
RATING,11, "RATE11", "RATING SET 11                   "
RATING,12, "RATE12", "RATING SET 12                   "
0 / END OF SYSTEM-WIDE DATA, BEGIN BUS DATA
@!   I,'NAME        ', BASKV, IDE,AREA,ZONE,OWNER, VM,        VA,    NVHI,   NVLO,   EVHI,   EVLO
     1,'ODESSA 2 0  ', 115.0000,1,   1,   9,   1,0.94713, -27.6998,1.10000,0.90000,1.10000,0.90000
     2,'PRESIDIO 2 0', 115.0000,1,   1,   9,   1,0.99817, -22.5194,1.10000,0.90000,1.10000,0.90000
     3,'O DONNELL ~1', 115.0000,1,   1,   9,   1,1.00155, -22.7778,1.10000,0.90000,1.10000,0.90000
     4,'O DONNELL ~2', 230.0000,2,   1,   9,   1,1.01000, -24.6190,1.10000,0.90000,1.10000,0.90000
     5,'BIG SPRING~8', 115.0000,1,   1,   9,   1,0.98157, -20.6425,1.10000,0.90000,1.10000,0.90000
     6,'BIG SPRING~9',  13.8000,2,   1,   9,   1,1.00000, -18.4752,1.10000,0.90000,1.10000,0.90000
     7,'VAN HORN 0  ', 115.0000,1,   1,   9,   1,1.00414, -22.9880,1.10000,0.90000,1.10000,0.90000
     8,'IRAAN 2 0   ', 115.0000,1,   1,   9,   1,1.00139, -12.1189,1.10000,0.90000,1.10000,0.90000
     9,'IRAAN 2 1   ',  13.8000,2,   1,   9,   1,1.00000,  -8.7574,1.10000,0.90000,1.10000,0.90000
    10,'PRESIDIO 1 0', 115.0000,1,   1,   9,   1,1.00624, -21.1720,1.10000,0.90000,1.10000,0.90000
    11,'PRESIDIO 1 1',  22.0000,2,   1,   9,   1,1.00644, -19.3404,1.10000,0.90000,1.10000,0.90000
    12,'SANDERSON 0 ', 115.0000,1,   1,   9,   1,0.91198, -29.1362,1.10000,0.90000,1.10000,0.90000
    13,'MONAHANS 2 0', 115.0000,1,   1,   9,   1,0.98365, -19.9806,1.10000,0.90000,1.10000,0.90000
    14,'GRANDFALLS 0', 115.0000,1,   1,   9,   1,0.99073, -16.0920,1.10000,0.90000,1.10000,0.90000
    15,'MARFA 0     ', 115.0000,1,   1,   9,   1,1.00695, -22.6727,1.10000,0.90000,1.10000,0.90000
    16,'GARDEN CIT~1', 115.0000,1,   1,   9,   1,0.97680, -19.6697,1.10000,0.90000,1.10000,0.90000
    17,'ODESSA 4 0  ', 115.0000,1,   1,   9,   1,0.94639, -26.2314,1.10000,0.90000,1.10000,0.90000
    18,'NOTREES 0   ', 115.0000,1,   1,   9,   1,0.96946, -25.1884,1.10000,0.90000,1.10000,0.90000
    19,'MIDLAND 4 0 ', 115.0000,1,   1,   9,   1,0.95634, -27.1633,1.10000,0.90000,1.10000,0.90000
    20,'BIG SPRING~1', 115.0000,1,   1,   9,   1,1.00752, -20.1506,1.10000,0.90000,1.10000,0.90000
    21,'BIG SPRING~2',  13.8000,2,   1,   9,   1,1.00000, -13.4749,1.10000,0.90000,1.10000,0.90000
    22,'O DONNELL ~3', 115.0000,1,   1,   9,   1,1.00716, -21.9159,1.10000,0.90000,1.10000,0.90000
    23,'O DONNELL ~4',  13.8000,2,   1,   9,   1,1.01000, -12.9785,1.10000,0.90000,1.10000,0.90000
    24,'ODESSA 6 0  ', 115.0000,1,   1,   9,   1,0.98375, -24.1806,1.10000,0.90000,1.10000,0.90000
    25,'BIG SPRIN~14', 115.0000,1,   1,   9,   1,1.00232, -18.9699,1.10000,0.90000,1.10000,0.90000
    26,'BIG SPRIN~15',  13.8000,2,   1,   9,   1,1.00000,  -9.3259,1.10000,0.90000,1.10000,0.90000
    27,'MIDLAND 2 0 ', 115.0000,1,   1,   9,   1,0.89795, -30.3626,1.10000,0.90000,1.10000,0.90000
    28,'COAHOMA 0   ', 115.0000,1,   1,   9,   1,1.01367, -23.4653,1.10000,0.90000,1.10000,0.90000
    29,'MIDLAND 3 0 ', 115.0000,1,   1,   9,   1,0.91245, -29.5751,1.10000,0.90000,1.10000,0.90000
    30,'ALPINE 0    ', 115.0000,1,   1,   9,   1,0.99065, -17.4522,1.10000,0.90000,1.10000,0.90000
    31,'FORT DAVIS 0', 115.0000,1,   1,   9,   1,0.99301, -22.2347,1.10000,0.90000,1.10000,0.90000
    32,'MCCAMEY 1 0 ', 115.0000,1,   1,   9,   1,0.98410, -16.2524,1.10000,0.90000,1.10000,0.90000
    33,'MCCAMEY 1 1 ', 230.0000,2,   1,   9,   1,1.00000, -21.1487,1.10000,0.90000,1.10000,0.90000
    34,'BIG SPRING~6', 115.0000,1,   1,   9,   1,0.98433, -18.7205,1.10000,0.90000,1.10000,0.90000
    35,'BIG SPRING~7',  13.8000,2,   1,   9,   1,1.00000, -15.4236,1.10000,0.90000,1.10000,0.90000
    36,'CRANE 0     ', 115.0000,1,   1,   9,   1,0.98930, -16.6773,1.10000,0.90000,1.10000,0.90000
    37,'ODESSA 5 0  ', 115.0000,1,   1,   9,   1,0.94239, -27.4868,1.10000,0.90000,1.10000,0.90000
    38,'FORT STOCK~1', 115.0000,1,   1,   9,   1,0.99789, -11.3376,1.10000,0.90000,1.10000,0.90000
    39,'FORT STOCK~2',  22.0000,2,   1,   9,   1,1.00000,  -5.8782,1.10000,0.90000,1.10000,0.90000
    40,'ANDREWS 0   ', 115.0000,1,   1,   9,   1,0.97682, -25.4445,1.10000,0.90000,1.10000,0.90000
    41,'FORSAN 0    ', 115.0000,1,   1,   9,   1,0.97870, -19.5240,1.10000,0.90000,1.10000,0.90000
    42,'FORSAN 1    ',  13.8000,2,   1,   9,   1,0.97870, -19.5240,1.10000,0.90000,1.10000,0.90000
    43,'FORSAN 2    ',  13.8000,2,   1,   9,   1,1.00000, -16.2357,1.10000,0.90000,1.10000,0.90000
    44,'BIG LAKE 0  ', 115.0000,1,   1,   9,   1,0.96787, -30.9474,1.10000,0.90000,1.10000,0.90000
    45,'MIDLAND 5 0 ', 115.0000,1,   1,   9,   1,0.92608, -29.3922,1.10000,0.90000,1.10000,0.90000
    46,'OZONA 0     ', 115.0000,1,   1,   9,   1,0.92950, -26.0834,1.10000,0.90000,1.10000,0.90000
    47,'MONAHANS 1 0', 115.0000,1,   1,   9,   1,0.99029, -17.8574,1.10000,0.90000,1.10000,0.90000
    48,'MONAHANS 1 1',  18.0000,2,   1,   9,   1,0.99029, -17.8574,1.10000,0.90000,1.10000,0.90000
    49,'MONAHANS 1 2',  18.0000,2,   1,   9,   1,0.99029, -17.8574,1.10000,0.90000,1.10000,0.90000
    50,'MONAHANS 1 3',  18.0000,2,   1,   9,   1,1.00000, -12.7429,1.10000,0.90000,1.10000,0.90000
    51,'MONAHANS 1 4',  18.0000,2,   1,   9,   1,1.00000, -11.2536,1.10000,0.90000,1.10000,0.90000
    52,'MONAHANS 1 5',  18.0000,2,   1,   9,   1,1.00000, -13.6166,1.10000,0.90000,1.10000,0.90000
    53,'MONAHANS 1 6', 230.0000,2,   1,   9,   1,0.99382, -21.8860,1.10000,0.90000,1.10000,0.90000
    54,'STANTON 0   ', 115.0000,1,   1,   9,   1,0.93519, -26.9123,1.10000,0.90000,1.10000,0.90000
    55,'ODONNELL 0  ', 115.0000,1,   1,   9,   1,0.98745, -23.7129,1.10000,0.90000,1.10000,0.90000
    56,'LENORAH 0   ', 115.0000,1,   1,   9,   1,0.93694, -26.1761,1.10000,0.90000,1.10000,0.90000
    57,'LENORAH 1   ',  18.0000,2,   1,   9,   1,0.93694, -26.1761,1.10000,0.90000,1.10000,0.90000
    58,'IRAAN 3 0   ', 115.0000,1,   1,   9,   1,0.98569, -14.5254,1.10000,0.90000,1.10000,0.90000
    59,'IRAAN 3 1   ',  22.0000,2,   1,   9,   1,0.98569, -14.5254,1.10000,0.90000,1.10000,0.90000
    60,'IRAAN 3 2   ',  22.0000,2,   1,   9,   1,0.98569, -14.5254,1.10000,0.90000,1.10000,0.90000
    61,'BIG SPRIN~10', 115.0000,1,   1,   9,   1,0.97481, -21.7413,1.10000,0.90000,1.10000,0.90000
    62,'BIG SPRIN~11',  13.8000,2,   1,   9,   1,0.97481, -21.7413,1.10000,0.90000,1.10000,0.90000
    63,'BIG SPRIN~12',  13.8000,2,   1,   9,   1,0.97481, -21.7413,1.10000,0.90000,1.10000,0.90000
    64,'ODESSA 3 0  ', 115.0000,1,   1,   9,   1,0.93334, -29.1766,1.10000,0.90000,1.10000,0.90000
    65,'BIG SPRING~4', 115.0000,1,   1,   9,   1,0.97676, -19.2615,1.10000,0.90000,1.10000,0.90000
    66,'BIG SPRING~5',  13.8000,2,   1,   9,   1,1.00000, -11.5820,1.10000,0.90000,1.10000,0.90000
    67,'BIG SPRIN~13', 115.0000,1,   1,   9,   1,0.97584, -20.1571,1.10000,0.90000,1.10000,0.90000
    68,'MIDLAND 1 0 ', 115.0000,1,   1,   9,   1,0.96525, -20.7677,1.10000,0.90000,1.10000,0.90000
    69,'IRAAN 1 0   ', 115.0000,1,   1,   9,   1,1.00070, -12.1111,1.10000,0.90000,1.10000,0.90000
    70,'IRAAN 1 1   ',  13.8000,2,   1,   9,   1,1.04000,  -7.5619,1.10000,0.90000,1.10000,0.90000
    71,'ODESSA 1 0  ', 115.0000,1,   1,   9,   1,0.95980, -26.4004,1.10000,0.90000,1.10000,0.90000
    72,'ODESSA 1 1  ',  18.0000,2,   1,   9,   1,1.01000, -16.8706,1.10000,0.90000,1.10000,0.90000
    73,'ODESSA 1 2  ',  18.0000,2,   1,   9,   1,1.01000, -10.2091,1.10000,0.90000,1.10000,0.90000
    74,'ODESSA 1 3  ',  18.0000,2,   1,   9,   1,1.01000, -12.3455,1.10000,0.90000,1.10000,0.90000
    75,'ODESSA 1 4  ',  18.0000,2,   1,   9,   1,1.01000, -15.1795,1.10000,0.90000,1.10000,0.90000
    76,'ODESSA 1 5  ',  18.0000,2,   1,   9,   1,0.95980, -26.4004,1.10000,0.90000,1.10000,0.90000
    77,'ODESSA 1 6  ',  18.0000,2,   1,   9,   1,0.95980, -26.4004,1.10000,0.90000,1.10000,0.90000
    78,'ODESSA 1 7  ',  18.0000,2,   1,   9,   1,1.01000, -15.6979,1.10000,0.90000,1.10000,0.90000
    79,'ODESSA 1 8  ', 500.0000,2,   1,   9,   1,1.01000, -44.2299,1.10000,0.90000,1.10000,0.90000
    80,'ODESSA 1 9  ',  18.0000,2,   1,   9,   1,1.01000, -15.1579,1.10000,0.90000,1.10000,0.90000
    81,'ODESSA 1 10 ', 230.0000,2,   1,   9,   1,0.99350, -23.2589,1.10000,0.90000,1.10000,0.90000
    82,'FORT STOCK~3', 115.0000,2,   1,   9,   1,1.00000,  -9.4142,1.10000,0.90000,1.10000,0.90000
    83,'FORT STOCK~4', 115.0000,1,   1,   9,   1,0.98954, -13.6307,1.10000,0.90000,1.10000,0.90000
    84,'BIG SPRING~3', 115.0000,2,   1,   9,   1,1.04000, -21.7393,1.10000,0.90000,1.10000,0.90000
    85,'KERMIT 0    ', 115.0000,1,   1,   9,   1,0.99047, -19.9522,1.10000,0.90000,1.10000,0.90000
    86,'PECOS 0     ', 115.0000,1,   1,   9,   1,0.96877, -21.8504,1.10000,0.90000,1.10000,0.90000
    87,'SHEFFIELD 0 ', 115.0000,1,   1,   9,   1,0.96096, -19.4332,1.10000,0.90000,1.10000,0.90000
    88,'MCCAMEY 2 0 ', 115.0000,2,   1,   9,   1,1.00000, -16.1979,1.10000,0.90000,1.10000,0.90000
    89,'LAMESA 0    ', 115.0000,1,   1,   9,   1,0.94622, -26.6155,1.10000,0.90000,1.10000,0.90000
    90,'GOLDSMITH 0 ', 115.0000,2,   1,   9,   1,1.02000, -21.1640,1.10000,0.90000,1.10000,0.90000
    91,'RALLS 2 0   ', 161.0000,1,   1,   9,   1,1.02683, -36.5983,1.10000,0.90000,1.10000,0.90000
    92,'PARIS 3 0   ', 161.0000,1,   2,  11,   1,0.98768, -65.9771,1.10000,0.90000,1.10000,0.90000
    93,'SAVOY 0     ', 500.0000,1,   2,  11,   1,0.98932, -67.5346,1.10000,0.90000,1.10000,0.90000
    94,'SAVOY 1     ', 161.0000,1,   2,  11,   1,0.97611, -69.8956,1.10000,0.90000,1.10000,0.90000
    95,'SAVOY 2     ',  13.8000,2,   2,  11,   1,0.98932, -67.5346,1.10000,0.90000,1.10000,0.90000
    96,'SAVOY 3     ',  13.8000,2,   2,  11,   1,0.98932, -67.5346,1.10000,0.90000,1.10000,0.90000
    97,'SAVOY 4     ',  13.8000,2,   2,  11,   1,0.98932, -67.5346,1.10000,0.90000,1.10000,0.90000
    98,'HONEY GROV~1', 161.0000,1,   2,  11,   1,0.98614, -65.7263,1.10000,0.90000,1.10000,0.90000
    99,'MEMPHIS 0   ', 161.0000,1,   2,  10,   1,1.00665, -38.3440,1.10000,0.90000,1.10000,0.90000
   100,'IOWA PARK 0 ', 161.0000,1,   2,  11,   1,0.97889, -50.3259,1.10000,0.90000,1.10000,0.90000
   101,'VERNON 2 0  ', 161.0000,1,   2,  10,   1,0.99825, -41.5565,1.10000,0.90000,1.10000,0.90000
   102,'PANHANDLE ~2', 500.0000,1,   2,  10,   1,1.02829, -37.5745,1.10000,0.90000,1.10000,0.90000
   103,'PANHANDLE ~3', 161.0000,1,   2,  10,   1,1.01253, -35.2760,1.10000,0.90000,1.10000,0.90000
   104,'PANHANDLE ~4',  18.0000,2,   2,  10,   1,1.00000, -35.1220,1.10000,0.90000,1.10000,0.90000
   105,'CHILDRESS 0 ', 161.0000,1,   2,  10,   1,1.00818, -38.9480,1.10000,0.90000,1.10000,0.90000
   106,'FORESTBURG 0', 161.0000,1,   2,  11,   1,0.95129, -69.0252,1.10000,0.90000,1.10000,0.90000
   107,'SHERMAN 3 0 ', 161.0000,1,   2,  11,   1,0.93139, -76.2141,1.10000,0.90000,1.10000,0.90000
   108,'PANHANDLE ~7', 500.0000,1,   2,  10,   1,1.04815, -37.8992,1.10000,0.90000,1.10000,0.90000
   109,'PANHANDLE ~8', 161.0000,1,   2,  10,   1,1.03449, -37.1373,1.10000,0.90000,1.10000,0.90000
   110,'PANHANDLE ~9',  20.0000,2,   2,  10,   1,1.04815, -37.8992,1.10000,0.90000,1.10000,0.90000
   111,'WICHITA F~12', 161.0000,1,   2,  11,   1,0.98344, -50.3768,1.10000,0.90000,1.10000,0.90000
   112,'PARIS 2 0   ', 500.0000,1,   2,  11,   1,1.00362, -62.6123,1.10000,0.90000,1.10000,0.90000
   113,'PARIS 2 1   ', 161.0000,1,   2,  11,   1,0.99702, -64.6012,1.10000,0.90000,1.10000,0.90000
   114,'PARIS 2 2   ',  13.8000,2,   2,  11,   1,1.02000, -61.0428,1.10000,0.90000,1.10000,0.90000
   115,'PARIS 2 3   ',  13.8000,2,   2,  11,   1,1.02000, -60.3700,1.10000,0.90000,1.10000,0.90000
   116,'WICHITA F~10', 161.0000,1,   2,  11,   1,0.98584, -49.6427,1.10000,0.90000,1.10000,0.90000
   117,'WHEELER 0   ', 161.0000,1,   2,  10,   1,1.01432, -36.5366,1.10000,0.90000,1.10000,0.90000
   118,'DEPORT 0    ', 161.0000,1,   2,  11,   1,0.98709, -66.4143,1.10000,0.90000,1.10000,0.90000
   119,'WICHITA FA~9', 161.0000,1,   2,  11,   1,0.97258, -52.6749,1.10000,0.90000,1.10000,0.90000
   120,'SILVERTON 0 ', 161.0000,1,   2,  10,   1,1.01636, -38.3309,1.10000,0.90000,1.10000,0.90000
   121,'BONHAM 0    ', 161.0000,1,   2,  11,   1,0.96170, -70.1319,1.10000,0.90000,1.10000,0.90000
   122,'MATADOR 0   ', 161.0000,1,   2,  10,   1,1.01897, -35.0789,1.10000,0.90000,1.10000,0.90000
   123,'ARTHUR CIT~1', 161.0000,1,   2,  11,   1,0.98938, -65.1041,1.10000,0.90000,1.10000,0.90000
   124,'LEONARD 0   ', 161.0000,1,   2,  11,   1,0.95873, -71.6808,1.10000,0.90000,1.10000,0.90000
   125,'GORDONVILL~1', 161.0000,1,   2,  11,   1,0.93524, -75.5387,1.10000,0.90000,1.10000,0.90000
   126,'KNOX CITY 0 ', 161.0000,1,   2,  10,   1,1.00772, -35.8667,1.10000,0.90000,1.10000,0.90000
   127,'WICHITA F~13', 161.0000,1,   2,  11,   1,0.98503, -49.9336,1.10000,0.90000,1.10000,0.90000
   128,'LINDSAY 0   ', 161.0000,1,   2,  11,   1,0.95528, -69.2910,1.10000,0.90000,1.10000,0.90000
   129,'ECTOR 0     ', 161.0000,1,   2,  11,   1,0.97265, -70.3849,1.10000,0.90000,1.10000,0.90000
   130,'SUNSET 0    ', 161.0000,1,   2,  11,   1,0.95416, -66.4058,1.10000,0.90000,1.10000,0.90000
   131,'CLARKSVILL~1', 161.0000,1,   2,  11,   1,0.99368, -65.2832,1.10000,0.90000,1.10000,0.90000
   132,'PANHANDLE ~5', 161.0000,1,   2,  10,   1,1.01192, -32.9967,1.10000,0.90000,1.10000,0.90000
   133,'PANHANDLE ~6',  18.0000,2,   2,  10,   1,1.01000, -30.3665,1.10000,0.90000,1.10000,0.90000
   134,'SADLER 0    ', 161.0000,1,   2,  11,   1,0.93345, -75.8492,1.10000,0.90000,1.10000,0.90000
   135,'WHITESBORO 0', 161.0000,1,   2,  11,   1,0.95591, -71.3080,1.10000,0.90000,1.10000,0.90000
   136,'SHEPPARD A~1', 161.0000,1,   2,  11,   1,0.98061, -50.8988,1.10000,0.90000,1.10000,0.90000
   137,'POTTSBORO 0 ', 161.0000,1,   2,  11,   1,0.93759, -75.1412,1.10000,0.90000,1.10000,0.90000
   138,'BELLS 0     ', 161.0000,1,   2,  11,   1,0.96913, -70.8185,1.10000,0.90000,1.10000,0.90000
   139,'CROSBYTON 0 ', 161.0000,1,   2,  10,   1,1.01999, -37.1413,1.10000,0.90000,1.10000,0.90000
   140,'ELECTRA 0   ', 161.0000,1,   2,  10,   1,0.99300, -46.0345,1.10000,0.90000,1.10000,0.90000
   141,'PATTONVILL~1', 161.0000,1,   2,  11,   1,0.97198, -69.3087,1.10000,0.90000,1.10000,0.90000
   142,'HENRIETTA 0 ', 161.0000,1,   2,  11,   1,0.95843, -59.6484,1.10000,0.90000,1.10000,0.90000
   143,'PANHANDLE~13', 161.0000,1,   2,  10,   1,1.00540, -37.4407,1.10000,0.90000,1.10000,0.90000
   144,'BOWIE 0     ', 161.0000,1,   2,  11,   1,0.96796, -65.1222,1.10000,0.90000,1.10000,0.90000
   145,'WICHITA FA~1', 500.0000,1,   2,  11,   1,0.99212, -48.6355,1.10000,0.90000,1.10000,0.90000
   146,'WICHITA FA~2', 161.0000,1,   2,  11,   1,0.98846, -49.4674,1.10000,0.90000,1.10000,0.90000
   147,'WICHITA FA~3',  18.0000,2,   2,  11,   1,0.99212, -48.6355,1.10000,0.90000,1.10000,0.90000
   148,'WICHITA FA~4',  18.0000,2,   2,  11,   1,0.99000, -44.2105,1.10000,0.90000,1.10000,0.90000
   149,'WHITE DEER 0', 161.0000,1,   2,  10,   1,1.00568, -32.4532,1.10000,0.90000,1.10000,0.90000
   150,'WHITE DEER 1',  13.8000,2,   2,  10,   1,1.00000, -28.9823,1.10000,0.90000,1.10000,0.90000
   151,'ROXTON 0    ', 161.0000,1,   2,  11,   1,0.97705, -67.9803,1.10000,0.90000,1.10000,0.90000
   152,'VERNON 1 0  ', 161.0000,1,   2,  10,   1,1.00856, -42.5775,1.10000,0.90000,1.10000,0.90000
   153,'VERNON 1 1  ',  18.0000,2,   2,  10,   1,1.02000, -40.2799,1.10000,0.90000,1.10000,0.90000
   154,'DENISON 2 0 ', 161.0000,1,   2,  11,   1,0.94173, -74.4501,1.10000,0.90000,1.10000,0.90000
   155,'SUMNER 0    ', 161.0000,1,   2,  11,   1,0.98662, -66.2677,1.10000,0.90000,1.10000,0.90000
   156,'GAINESVILL~1', 161.0000,1,   2,  11,   1,0.94618, -71.3670,1.10000,0.90000,1.10000,0.90000
   157,'ASPERMONT 0 ', 161.0000,1,   2,  10,   1,1.01248, -33.0210,1.10000,0.90000,1.10000,0.90000
   158,'WICHITA F~11', 161.0000,1,   2,  11,   1,0.98503, -49.5779,1.10000,0.90000,1.10000,0.90000
   159,'WINDTHORST 0', 161.0000,1,   2,  11,   1,0.99555, -47.5635,1.10000,0.90000,1.10000,0.90000
   160,'HOWE 0      ', 161.0000,1,   2,  11,   1,0.94221, -75.1516,1.10000,0.90000,1.10000,0.90000
   161,'ARCHER 2 0  ', 161.0000,1,   2,  11,   1,0.99874, -47.1540,1.10000,0.90000,1.10000,0.90000
   162,'ARCHER 2 1  ',  18.0000,2,   2,  11,   1,1.00000, -43.4700,1.10000,0.90000,1.10000,0.90000
   163,'COLLINSVIL~1', 161.0000,1,   2,  11,   1,0.95506, -73.2469,1.10000,0.90000,1.10000,0.90000
   164,'JAYTON 0    ', 161.0000,1,   2,  10,   1,1.01770, -30.5884,1.10000,0.90000,1.10000,0.90000
   165,'JAYTON 1    ', 115.0000,1,   2,  10,   1,1.00264, -28.6578,1.10000,0.90000,1.10000,0.90000
   166,'JAYTON 2    ', 115.0000,1,   2,  10,   1,1.00264, -28.6578,1.10000,0.90000,1.10000,0.90000
   167,'JAYTON 3    ',  24.0000,2,   2,  10,   1,1.04000, -29.7457,1.10000,0.90000,1.10000,0.90000
   168,'MUENSTER 1 0', 161.0000,1,   2,  11,   1,0.97220, -66.8010,1.10000,0.90000,1.10000,0.90000
   169,'MUENSTER 1 1',  13.8000,2,   2,  11,   1,1.02000, -63.3975,1.10000,0.90000,1.10000,0.90000
   170,'PADUCAH 0   ', 161.0000,1,   2,  10,   1,1.00803, -39.8775,1.10000,0.90000,1.10000,0.90000
   171,'NOCONA 0    ', 161.0000,1,   2,  11,   1,0.95864, -63.0784,1.10000,0.90000,1.10000,0.90000
   172,'DODD CITY 0 ', 161.0000,1,   2,  11,   1,0.96649, -71.2190,1.10000,0.90000,1.10000,0.90000
   173,'WICHITA FA~5', 161.0000,1,   2,  11,   1,0.98348, -50.2135,1.10000,0.90000,1.10000,0.90000
   174,'WICHITA FA~6',  20.0000,2,   2,  11,   1,1.02000, -48.6423,1.10000,0.90000,1.10000,0.90000
   175,'WICHITA FA~7',  20.0000,2,   2,  11,   1,0.98348, -50.2135,1.10000,0.90000,1.10000,0.90000
   176,'WICHITA FA~8',  20.0000,2,   2,  11,   1,0.98348, -50.2135,1.10000,0.90000,1.10000,0.90000
   177,'MONTAGUE 0  ', 161.0000,1,   2,  11,   1,0.95573, -65.1500,1.10000,0.90000,1.10000,0.90000
   178,'SPUR 0      ', 161.0000,1,   2,  10,   1,1.01783, -32.9296,1.10000,0.90000,1.10000,0.90000
   179,'ARCHER 1 0  ', 161.0000,1,   2,  11,   1,0.99715, -47.2669,1.10000,0.90000,1.10000,0.90000
   180,'ARCHER 1 1  ',  24.0000,2,   2,  11,   1,1.00000, -43.6570,1.10000,0.90000,1.10000,0.90000
   181,'ANNONA 0    ', 161.0000,1,   2,  11,   1,0.98559, -67.0446,1.10000,0.90000,1.10000,0.90000
   182,'SEYMOUR 0   ', 161.0000,1,   2,  10,   1,1.00160, -39.2122,1.10000,0.90000,1.10000,0.90000
   183,'DENISON 1 0 ', 161.0000,1,   2,  11,   1,0.95434, -72.6984,1.10000,0.90000,1.10000,0.90000
   184,'PANHANDLE~10', 161.0000,1,   2,  10,   1,1.02326, -36.1669,1.10000,0.90000,1.10000,0.90000
   185,'PANHANDLE~11',  13.8000,2,   2,  10,   1,1.02326, -36.1669,1.10000,0.90000,1.10000,0.90000
   186,'PANHANDLE~12',  13.8000,2,   2,  10,   1,1.02326, -36.1669,1.10000,0.90000,1.10000,0.90000
   187,'RALLS 1 0   ', 500.0000,1,   2,  10,   1,1.03883, -33.6097,1.10000,0.90000,1.10000,0.90000
   188,'RALLS 1 1   ', 230.0000,1,   2,  10,   1,1.03580, -33.0556,1.10000,0.90000,1.10000,0.90000
   189,'RALLS 1 2   ', 161.0000,1,   2,  10,   1,1.02987, -36.0532,1.10000,0.90000,1.10000,0.90000
   190,'RALLS 1 3   ',  18.0000,2,   2,  10,   1,1.02000, -33.4598,1.10000,0.90000,1.10000,0.90000
   191,'RALLS 1 4   ',  18.0000,2,   2,  10,   1,1.02000, -31.0145,1.10000,0.90000,1.10000,0.90000
   192,'SHERMAN 1 0 ', 500.0000,1,   2,  11,   1,0.98739, -68.6742,1.10000,0.90000,1.10000,0.90000
   193,'SHERMAN 1 1 ', 161.0000,1,   2,  11,   1,0.97793, -70.1908,1.10000,0.90000,1.10000,0.90000
   194,'SHERMAN 1 2 ',  20.0000,2,   2,  11,   1,0.98739, -68.6742,1.10000,0.90000,1.10000,0.90000
   195,'SHERMAN 1 3 ',  20.0000,2,   2,  11,   1,0.98739, -68.6742,1.10000,0.90000,1.10000,0.90000
   196,'SHERMAN 1 4 ',  20.0000,2,   2,  11,   1,0.98739, -68.6742,1.10000,0.90000,1.10000,0.90000
   197,'WHITEWRIGH~1', 161.0000,1,   2,  11,   1,0.95447, -72.3539,1.10000,0.90000,1.10000,0.90000
   198,'SHERMAN 2 0 ', 161.0000,1,   2,  11,   1,0.97111, -71.1147,1.10000,0.90000,1.10000,0.90000
   199,'ROCHESTER 0 ', 161.0000,1,   2,  10,   1,0.97437, -49.2547,1.10000,0.90000,1.10000,0.90000
   200,'BURKBURNET~1', 161.0000,1,   2,  11,   1,0.97308, -51.6290,1.10000,0.90000,1.10000,0.90000
...
0 / END OF BUS DATA, BEGIN LOAD DATA
@!   I,'ID',STAT,AREA,ZONE,      PL,        QL,        IP,        IQ,        YP,        YQ, OWNER,SCALE,INTRPT,  DGENP,     DGENQ, DGENF
     1,'1 ',   1,   1,   9,    20.781,     5.888,     0.000,     0.000,     0.000,     0.000,   1,    1,  0,     0.000,     0.000,   0
     2,'1 ',   1,   1,   9,    15.414,     4.367,     0.000,     0.000,     0.000,     0.000,   1,    1,  0,     0.000,     0.000,   0
     7,'1 ',   1,   1,   9,     7.008,     1.986,     0.000,     0.000,     0.000,     0.000,   1,    1,  0,     0.000,     0.000,   0
    12,'1 ',   1,   1,   9,     2.985,     0.846,     0.000,     0.000,     0.000,     0.000,   1,    1,  0,     0.000,     0.000,   0
    13,'1 ',   1,   1,   9,     0.510,     0.144,     0.000,     0.000,     0.000,     0.000,   1,    1,  0,     0.000,     0.000,   0
    13,'2 ',   1,   1,   9,     1.518,     0.430,     0.000,     0.000,     0.000,     0.000,   1,    1,  0,     0.000,     0.000,   0
    13,'3 ',   1,   1,   9,    27.198,     7.706,     0.000,     0.000,     0.000,     0.000,   1,    1,  0,     0.000,     0.000,   0
    14,'1 ',   1,   1,   9,     2.220,     0.629,     0.000,     0.000,     0.000,     0.000,   1,    1,  0,     0.000,     0.000,   0
    15,'1 ',   1,   1,   9,     7.509,     2.128,     0.000,     0.000,     0.000,     0.000,   1,    1,  0,     0.000,     0.000,   0
    16,'1 ',   1,   1,   9,     2.889,     0.819,     0.000,     0.000,     0.000,     0.000,   1,    1,  0,     0.000,     0.000,   0
    17,'1 ',   1,   1,   9,    18.345,     5.198,     0.000,     0.000,     0.000,     0.000,   1,    1,  0,     0.000,     0.000,   0
    18,'1 ',   1,   1,   9,     0.069,     0.020,     0.000,     0.000,     0.000,     0.000,   1,    1,  0,     0.000,     0.000,   0
    19,'1 ',   1,   1,   9,    61.776,    17.503,     0.000,     0.000,     0.000,     0.000,   1,    1,  0,     0.000,     0.000,   0
    24,'1 ',   1,   1,   9,    63.039,    17.861,     0.000,     0.000,     0.000,     0.000,   1,    1,  0,     0.000,     0.000,   0
    27,'1 ',   1,   1,   9,     0.603,     0.171,     0.000,     0.000,     0.000,     0.000,   1,    1,  0,     0.000,     0.000,   0
    27,'2 ',   1,   1,   9,   100.608,    28.506,     0.000,     0.000,     0.000,     0.000,   1,    1,  0,     0.000,     0.000,   0
    28,'1 ',   1,   1,   9,     1.425,     0.404,     0.000,     0.000,     0.000,     0.000,   1,    1,  0,     0.000,     0.000,   0
    28,'2 ',   1,   1,   9,     0.753,     0.213,     0.000,     0.000,     0.000,     0.000,   1,    1,  0,     0.000,     0.000,   0
    28,'3 ',   1,   1,   9,     4.899,     1.388,     0.000,     0.000,     0.000,     0.000,   1,    1,  0,     0.000,     0.000,   0
    28,'4 ',   1,   1,   9,     2.937,     0.832,     0.000,     0.000,     0.000,     0.000,   1,    1,  0,     0.000,     0.000,   0
    29,'1 ',   1,   1,   9,    83.184,    23.569,     0.000,     0.000,     0.000,     0.000,   1,    1,  0,     0.000,     0.000,   0
    30,'1 ',   1,   1,   9,    23.046,     6.530,     0.000,     0.000,     0.000,     0.000,   1,    1,  0,     0.000,     0.000,   0
    30,'2 ',   1,   1,   9,     1.581,     0.448,     0.000,     0.000,     0.000,     0.000,   1,    1,  0,     0.000,     0.000,   0
    31,'1 ',   1,   1,   9,     9.246,     2.620,     0.000,     0.000,     0.000,     0.000,   1,    1,  0,     0.000,     0.000,   0
    36,'1 ',   1,   1,   9,     1.017,     0.288,     0.000,     0.000,     0.000,     0.000,   1,    1,  0,     0.000,     0.000,   0
    36,'2 ',   1,   1,   9,    12.579,     3.564,     0.000,     0.000,     0.000,     0.000,   1,    1,  0,     0.000,     0.000,   0
    37,'1 ',   1,   1,   9,   102.237,    28.967,     0.000,     0.000,     0.000,     0.000,   1,    1,  0,     0.000,     0.000,   0
    40,'1 ',   1,   1,   9,    44.358,    12.568,     0.000,     0.000,     0.000,     0.000,   1,    1,  0,     0.000,     0.000,   0
    44,'1 ',   1,   1,   9,     4.512,     1.278,     0.000,     0.000,     0.000,     0.000,   1,    1,  0,     0.000,     0.000,   0
    44,'2 ',   1,   1,   9,    10.170,     2.881,     0.000,     0.000,     0.000,     0.000,   1,    1,  0,     0.000,     0.000,   0
    45,'1 ',   1,   1,   9,    98.562,    27.926,     0.000,     0.000,     0.000,     0.000,   1,    1,  0,     0.000,     0.000,   0
    46,'1 ',   1,   1,   9,     0.006,     0.002,     0.000,     0.000,     0.000,     0.000,   1,    1,  0,     0.000,     0.000,   0
    46,'2 ',   1,   1,   9,    11.079,     3.139,     0.000,     0.000,     0.000,     0.000,   1,    1,  0,     0.000,     0.000,   0
    54,'1 ',   1,   1,   9,     1.776,     0.503,     0.000,     0.000,     0.000,     0.000,   1,    1,  0,     0.000,     0.000,   0
    54,'2 ',   1,   1,   9,     0.519,     0.147,     0.000,     0.000,     0.000,     0.000,   1,    1,  0,     0.000,     0.000,   0
    54,'3 ',   1,   1,   9,    12.693,     3.596,     0.000,     0.000,     0.000,     0.000,   1,    1,  0,     0.000,     0.000,   0
    55,'1 ',   1,   1,   9,     3.978,     1.127,     0.000,     0.000,     0.000,     0.000,   1,    1,  0,     0.000,     0.000,   0
    58,'1 ',   1,   1,   9,     4.086,     1.158,     0.000,     0.000,     0.000,     0.000,   1,    1,  0,     0.000,     0.000,   0
    58,'2 ',   1,   1,   9,     9.369,     2.655,     0.000,     0.000,     0.000,     0.000,   1,    1,  0,     0.000,     0.000,   0
    64,'1 ',   1,   1,   9,     6.591,     1.867,     0.000,     0.000,     0.000,     0.000,   1,    1,  0,     0.000,     0.000,   0
    64,'2 ',   1,   1,   9,   117.168,    33.198,     0.000,     0.000,     0.000,     0.000,   1,    1,  0,     0.000,     0.000,   0
    67,'1 ',   1,   1,   9,   101.550,    28.773,     0.000,     0.000,     0.000,     0.000,   1,    1,  0,     0.000,     0.000,   0
    68,'1 ',   1,   1,   9,     0.690,     0.195,     0.000,     0.000,     0.000,     0.000,   1,    1,  0,     0.000,     0.000,   0
    68,'2 ',   1,   1,   9,    58.713,    16.635,     0.000,     0.000,     0.000,     0.000,   1,    1,  0,     0.000,     0.000,   0
    71,'1 ',   1,   1,   9,    91.464,    25.915,     0.000,     0.000,     0.000,     0.000,   1,    1,  0,     0.000,     0.000,   0
    83,'1 ',   1,   1,   9,    39.945,    11.318,     0.000,     0.000,     0.000,     0.000,   1,    1,  0,     0.000,     0.000,   0
    85,'1 ',   1,   1,   9,     2.922,     0.828,     0.000,     0.000,     0.000,     0.000,   1,    1,  0,     0.000,     0.000,   0
    85,'2 ',   1,   1,   9,    18.375,     5.206,     0.000,     0.000,     0.000,     0.000,   1,    1,  0,     0.000,     0.000,   0
    86,'1 ',   1,   1,   9,    39.672,    11.240,     0.000,     0.000,     0.000,     0.000,   1,    1,  0,     0.000,     0.000,   0
    87,'1 ',   1,   1,   9,     0.909,     0.258,     0.000,     0.000,     0.000,     0.000,   1,    1,  0,     0.000,     0.000,   0
    89,'1 ',   1,   1,   9,     0.831,     0.235,     0.000,     0.000,     0.000,     0.000,   1,    1,  0,     0.000,     0.000,   0
    89,'2 ',   1,   1,   9,    39.774,    11.269,     0.000,     0.000,     0.000,     0.000,   1,    1,  0,     0.000,     0.000,   0
    91,'1 ',   1,   1,   9,     4.713,     1.335,     0.000,     0.000,     0.000,     0.000,   1,    1,  0,     0.000,     0.000,   0
    91,'2 ',   1,   1,   9,     6.909,     1.958,     0.000,     0.000,     0.000,     0.000,   1,    1,  0,     0.000,     0.000,   0
    92,'1 ',   1,   2,  11,    14.307,     4.054,     0.000,     0.000,     0.000,     0.000,   1,    1,  0,     0.000,     0.000,   0
    92,'2 ',   1,   2,  11,    34.050,     9.647,     0.000,     0.000,     0.000,     0.000,   1,    1,  0,     0.000,     0.000,   0
    98,'1 ',   1,   2,  11,     9.540,     2.703,     0.000,     0.000,     0.000,     0.000,   1,    1,  0,     0.000,     0.000,   0
    99,'1 ',   1,   2,  10,     8.061,     2.284,     0.000,     0.000,     0.000,     0.000,   1,    1,  0,     0.000,     0.000,   0
   100,'1 ',   1,   2,  11,    39.135,    11.088,     0.000,     0.000,     0.000,     0.000,   1,    1,  0,     0.000,     0.000,   0
   101,'1 ',   1,   2,  10,     5.106,     1.447,     0.000,     0.000,     0.000,     0.000,   1,    1,  0,     0.000,     0.000,   0
   101,'2 ',   1,   2,  10,     9.606,     2.722,     0.000,     0.000,     0.000,     0.000,   1,    1,  0,     0.000,     0.000,   0
   101,'3 ',   1,   2,  10,     2.928,     0.830,     0.000,     0.000,     0.000,     0.000,   1,    1,  0,     0.000,     0.000,   0
   101,'4 ',   1,   2,  10,     0.192,     0.054,     0.000,     0.000,     0.000,     0.000,   1,    1,  0,     0.000,     0.000,   0
   101,'5 ',   1,   2,  10,    38.973,    11.042,     0.000,     0.000,     0.000,     0.000,   1,    1,  0,     0.000,     0.000,   0
   105,'1 ',   1,   2,  10,     3.624,     1.027,     0.000,     0.000,     0.000,     0.000,   1,    1,  0,     0.000,     0.000,   0
   105,'2 ',   1,   2,  10,    21.804,     6.178,     0.000,     0.000,     0.000,     0.000,   1,    1,  0,     0.000,     0.000,   0
   106,'1 ',   1,   2,  11,     4.686,     1.328,     0.000,     0.000,     0.000,     0.000,   1,    1,  0,     0.000,     0.000,   0
   107,'1 ',   1,   2,  11,    69.267,    19.626,     0.000,     0.000,     0.000,     0.000,   1,    1,  0,     0.000,     0.000,   0
   111,'1 ',   1,   2,  11,    47.973,    13.592,     0.000,     0.000,     0.000,     0.000,   1,    1,  0,     0.000,     0.000,   0
   113,'1 ',   1,   2,  11,    11.565,     3.277,     0.000,     0.000,     0.000,     0.000,   1,    1,  0,     0.000,     0.000,   0
   116,'1 ',   1,   2,  11,    39.618,    11.225,     0.000,     0.000,     0.000,     0.000,   1,    1,  0,     0.000,     0.000,   0
   117,'1 ',   1,   2,  10,     2.511,     0.711,     0.000,     0.000,     0.000,     0.000,   1,    1,  0,     0.000,     0.000,   0
   117,'2 ',   1,   2,  10,     0.948,     0.269,     0.000,     0.000,     0.000,     0.000,   1,    1,  0,     0.000,     0.000,   0
   117,'3 ',   1,   2,  10,     7.173,     2.032,     0.000,     0.000,     0.000,     0.000,   1,    1,  0,     0.000,     0.000,   0
   117,'4 ',   1,   2,  10,     7.938,     2.249,     0.000,     0.000,     0.000,     0.000,   1,    1,  0,     0.000,     0.000,   0
   118,'1 ',   1,   2,  11,     3.555,     1.007,     0.000,     0.000,     0.000,     0.000,   1,    1,  0,     0.000,     0.000,   0
   119,'1 ',   1,   2,  11,    14.238,     4.034,     0.000,     0.000,     0.000,     0.000,   1,    1,  0,     0.000,     0.000,   0
   120,'1 ',   1,   2,  10,     3.201,     0.907,     0.000,     0.000,     0.000,     0.000,   1,    1,  0,     0.000,     0.000,   0
   121,'1 ',   1,   2,  11,     3.912,     1.108,     0.000,     0.000,     0.000,     0.000,   1,    1,  0,     0.000,     0.000,   0
   121,'2 ',   1,   2,  11,    43.233,    12.249,     0.000,     0.000,     0.000,     0.000,   1,    1,  0,     0.000,     0.000,   0
   122,'1 ',   1,   2,  10,     0.786,     0.223,     0.000,     0.000,     0.000,     0.000,   1,    1,  0,     0.000,     0.000,   0
   122,'2 ',   1,   2,  10,     1.272,     0.360,     0.000,     0.000,     0.000,     0.000,   1,    1,  0,     0.000,     0.000,   0
   122,'3 ',   1,   2,  10,     3.708,     1.051,     0.000,     0.000,     0.000,     0.000,   1,    1,  0,     0.000,     0.000,   0
   123,'1 ',   1,   2,  11,     3.354,     0.950,     0.000,     0.000,     0.000,     0.000,   1,    1,  0,     0.000,     0.000,   0
   124,'1 ',   1,   2,  11,     1.302,     0.369,     0.000,     0.000,     0.000,     0.000,   1,    1,  0,     0.000,     0.000,   0
   124,'2 ',   1,   2,  11,    12.270,     3.477,     0.000,     0.000,     0.000,     0.000,   1,    1,  0,     0.000,     0.000,   0
   125,'1 ',   1,   2,  11,     5.340,     1.513,     0.000,     0.000,     0.000,     0.000,   1,    1,  0,     0.000,     0.000,   0
   126,'1 ',   1,   2,  10,     4.149,     1.176,     0.000,     0.000,     0.000,     0.000,   1,    1,  0,     0.000,     0.000,   0
   126,'2 ',   1,   2,  10,     0.534,     0.151,     0.000,     0.000,     0.000,     0.000,   1,    1,  0,     0.000,     0.000,   0
   127,'1 ',   1,   2,  11,    41.586,    11.783,     0.000,     0.000,     0.000,     0.000,   1,    1,  0,     0.000,     0.000,   0
   128,'1 ',   1,   2,  11,     0.690,     0.195,     0.000,     0.000,     0.000,     0.000,   1,    1,  0,     0.000,     0.000,   0
   128,'2 ',   1,   2,  11,     2.811,     0.796,     0.000,     0.000,     0.000,     0.000,   1,    1,  0,     0.000,     0.000,   0
   129,'1 ',   1,   2,  11,     2.604,     0.738,     0.000,     0.000,     0.000,     0.000,   1,    1,  0,     0.000,     0.000,   0
   130,'1 ',   1,   2,  11,     5.559,     1.575,     0.000,     0.000,     0.000,     0.000,   1,    1,  0,     0.000,     0.000,   0
   131,'1 ',   1,   2,  11,    15.903,     4.506,     0.000,     0.000,     0.000,     0.000,   1,    1,  0,     0.000,     0.000,   0
   134,'1 ',   1,   2,  11,     4.236,     1.200,     0.000,     0.000,     0.000,     0.000,   1,    1,  0,     0.000,     0.000,   0
   135,'1 ',   1,   2,  11,    27.405,     7.765,     0.000,     0.000,     0.000,     0.000,   1,    1,  0,     0.000,     0.000,   0
   136,'1 ',   1,   2,  11,    22.605,     6.405,     0.000,     0.000,     0.000,     0.000,   1,    1,  0,     0.000,     0.000,   0
   137,'1 ',   1,   2,  11,    22.134,     6.271,     0.000,     0.000,     0.000,     0.000,   1,    1,  0,     0.000,     0.000,   0
   138,'1 ',   1,   2,  11,     9.408,     2.666,     0.000,     0.000,     0.000,     0.000,   1,    1,  0,     0.000,     0.000,   0
   138,'2 ',   1,   2,  11,     5.547,     1.572,     0.000,     0.000,     0.000,     0.000,   1,    1,  0,     0.000,     0.000,   0
   139,'1 ',   1,   2,  10,     6.417,     1.818,     0.000,     0.000,     0.000,     0.000,   1,    1,  0,     0.000,     0.000,   0
   140,'1 ',   1,   2,  10,     0.486,     0.138,     0.000,     0.000,     0.000,     0.000,   1,    1,  0,     0.000,     0.000,   0
   140,'2 ',   1,   2,  10,     0.579,     0.164,     0.000,     0.000,     0.000,     0.000,   1,    1,  0,     0.000,     0.000,   0
   140,'3 ',   1,   2,  10,    10.506,     2.977,     0.000,     0.000,     0.000,     0.000,   1,    1,  0,     0.000,     0.000,   0
   141,'1 ',   1,   2,  11,     3.657,     1.036,     0.000,     0.000,     0.000,     0.000,   1,    1,  0,     0.000,     0.000,   0
   142,'1 ',   1,   2,  11,    17.850,     5.057,     0.000,     0.000,     0.000,     0.000,   1,    1,  0,     0.000,     0.000,   0
   143,'1 ',   1,   2,  10,     9.459,     2.680,     0.000,     0.000,     0.000,     0.000,   1,    1,  0,     0.000,     0.000,   0
   143,'2 ',   1,   2,  10,    15.378,     4.357,     0.000,     0.000,     0.000,     0.000,   1,    1,  0,     0.000,     0.000,   0
   144,'1 ',   1,   2,  11,    29.133,     8.254,     0.000,     0.000,     0.000,     0.000,   1,    1,  0,     0.000,     0.000,   0
   146,'1 ',   1,   2,  11,    49.620,    14.059,     0.000,     0.000,     0.000,     0.000,   1,    1,  0,     0.000,     0.000,   0
   151,'1 ',   1,   2,  11,     3.795,     1.075,     0.000,     0.000,     0.000,     0.000,   1,    1,  0,     0.000,     0.000,   0
   154,'1 ',   1,   2,  11,    65.616,    18.591,     0.000,     0.000,     0.000,     0.000,   1,    1,  0,     0.000,     0.000,   0
   155,'1 ',   1,   2,  11,     7.038,     1.994,     0.000,     0.000,     0.000,     0.000,   1,    1,  0,     0.000,     0.000,   0
   155,'2 ',   1,   2,  11,     3.009,     0.853,     0.000,     0.000,     0.000,     0.000,   1,    1,  0,     0.000,     0.000,   0
   156,'1 ',   1,   2,  11,    78.360,    22.202,     0.000,     0.000,     0.000,     0.000,   1,    1,  0,     0.000,     0.000,   0
   157,'1 ',   1,   2,  10,     4.050,     1.147,     0.000,     0.000,     0.000,     0.000,   1,    1,  0,     0.000,     0.000,   0
   157,'2 ',   1,   2,  10,     2.541,     0.720,     0.000,     0.000,     0.000,     0.000,   1,    1,  0,     0.000,     0.000,   0
   157,'3 ',   1,   2,  10,     0.522,     0.148,     0.000,     0.000,     0.000,     0.000,   1,    1,  0,     0.000,     0.000,   0
   158,'1 ',   1,   2,  11,    53.967,    15.291,     0.000,     0.000,     0.000,     0.000,   1,    1,  0,     0.000,     0.000,   0
   159,'1 ',   1,   2,  11,     5.760,     1.632,     0.000,     0.000,     0.000,     0.000,   1,    1,  0,     0.000,     0.000,   0
   160,'1 ',   1,   2,  11,    21.924,     6.212,     0.000,     0.000,     0.000,     0.000,   1,    1,  0,     0.000,     0.000,   0
   163,'1 ',   1,   2,  11,     9.705,     2.750,     0.000,     0.000,     0.000,     0.000,   1,    1,  0,     0.000,     0.000,   0
   170,'1 ',   1,   2,  10,     4.479,     1.269,     0.000,     0.000,     0.000,     0.000,   1,    1,  0,     0.000,     0.000,   0
   171,'1 ',   1,   2,  11,    16.932,     4.797,     0.000,     0.000,     0.000,     0.000,   1,    1,  0,     0.000,     0.000,   0
   172,'1 ',   1,   2,  11,     4.464,     1.265,     0.000,     0.000,     0.000,     0.000,   1,    1,  0,     0.000,     0.000,   0
   173,'1 ',   1,   2,  11,    59.031,    16.725,     0.000,     0.000,     0.000,     0.000,   1,    1,  0,     0.000,     0.000,   0
   177,'1 ',   1,   2,  11,     2.193,     0.621,     0.000,     0.000,     0.000,     0.000,   1,    1,  0,     0.000,     0.000,   0
   178,'1 ',   1,   2,  10,     7.896,     2.237,     0.000,     0.000,     0.000,     0.000,   1,    1,  0,     0.000,     0.000,   0
   181,'1 ',   1,   2,  11,     2.424,     0.687,     0.000,     0.000,     0.000,     0.000,   1,    1,  0,     0.000,     0.000,   0
   182,'1 ',   1,   2,  10,    17.046,     4.830,     0.000,     0.000,     0.000,     0.000,   1,    1,  0,     0.000,     0.000,   0
   183,'1 ',   1,   2,  11,    24.108,     6.831,     0.000,     0.000,     0.000,     0.000,   1,    1,  0,     0.000,     0.000,   0
   197,'1 ',   1,   2,  11,    14.403,     4.081,     0.000,     0.000,     0.000,     0.000,   1,    1,  0,     0.000,     0.000,   0
   198,'1 ',   1,   2,  11,    74.151,    21.009,     0.000,     0.000,     0.000,     0.000,   1,    1,  0,     0.000,     0.000,   0
   199,'1 ',   1,   2,  10,     2.145,     0.608,     0.000,     0.000,     0.000,     0.000,   1,    1,  0,     0.000,     0.000,   0
   200,'1 ',   1,   2,  11,    33.810,     9.579,     0.000,     0.000,     0.000,     0.000,   1,    1,  0,     0.000,     0.000,   0
   201,'1 ',   1,   2,  11,     8.589,     2.434,     0.000,     0.000,     0.000,     0.000,   1,    1,  0,     0.000,     0.000,   0
   202,'1 ',   1,   2,  11,     7.002,     1.984,     0.000,     0.000,     0.000,     0.000,   1,    1,  0,     0.000,     0.000,   0
   202,'2 ',   1,   2,  11,     6.951,     1.969,     0.000,     0.000,     0.000,     0.000,   1,    1,  0,     0.000,     0.000,   0
   203,'1 ',   1,   2,  11,     4.542,     1.287,     0.000,     0.000,     0.000,     0.000,   1,    1,  0,     0.000,     0.000,   0
   205,'1 ',   1,   2,  11,    70.776,    20.053,     0.000,     0.000,     0.000,     0.000,   1,    1,  0,     0.000,     0.000,   0
   212,'1 ',   1,   2,  11,     2.334,     0.661,     0.000,     0.000,     0.000,     0.000,   1,    1,  0,     0.000,     0.000,   0
   213,'1 ',   1,   2,  11,     6.723,     1.905,     0.000,     0.000,     0.000,     0.000,   1,    1,  0,     0.000,     0.000,   0
   215,'1 ',   1,   2,  11,    21.285,     6.031,     0.000,     0.000,     0.000,     0.000,   1,    1,  0,     0.000,     0.000,   0
   216,'1 ',   1,   2,  11,     4.056,     1.149,     0.000,     0.000,     0.000,     0.000,   1,    1,  0,     0.000,     0.000,   0
   217,'1 ',   1,   2,  11,    14.235,     4.033,     0.000,     0.000,     0.000,     0.000,   1,    1,  0,     0.000,     0.000,   0
   220,'1 ',   1,   2,  11,     6.633,     1.879,     0.000,     0.000,     0.000,     0.000,   1,    1,  0,     0.000,     0.000,   0
   223,'1 ',   1,   2,  10,    11.940,     3.383,     0.000,     0.000,     0.000,     0.000,   1,    1,  0,     0.000,     0.000,   0
   224,'1 ',   1,   2,  11,     5.679,     1.609,     0.000,     0.000,     0.000,     0.000,   1,    1,  0,     0.000,     0.000,   0
   226,'1 ',   1,   3,  28,   112.860,    31.977,     0.000,     0.000,     0.000,     0.000,   1,    1,  0,     0.000,     0.000,   0
   229,'1 ',   1,   3,  28,     0.792,     0.224,     0.000,     0.000,     0.000,     0.000,   1,    1,  0,     0.000,     0.000,   0
   229,'2 ',   1,   3,  28,     0.825,     0.234,     0.000,     0.000,     0.000,     0.000,   1,    1,  0,     0.000,     0.000,   0
   229,'3 ',   1,   3,  28,     5.724,     1.622,     0.000,     0.000,     0.000,     0.000,   1,    1,  0,     0.000,     0.000,   0
   230,'1 ',   1,   3,  27,     7.347,     2.082,     0.000,     0.000,     0.000,     0.000,   1,    1,  0,     0.000,     0.000,   0
   231,'1 ',   1,   3,  27,    14.964,     4.240,     0.000,     0.000,     0.000,     0.000,   1,    1,  0,     0.000,     0.000,   0
   232,'1 ',   1,   3,  27,    18.996,     5.382,     0.000,     0.000,     0.000,     0.000,   1,    1,  0,     0.000,     0.000,   0
   232,'2 ',   1,   3,  27,     0.813,     0.230,     0.000,     0.000,     0.000,     0.000,   1,    1,  0,     0.000,     0.000,   0
   233,'1 ',   1,   3,  28,    12.540,     3.553,     0.000,     0.000,     0.000,     0.000,   1,    1,  0,     0.000,     0.000,   0
   234,'1 ',   1,   3,  28,     4.671,     1.323,     0.000,     0.000,     0.000,     0.000,   1,    1,  0,     0.000,     0.000,   0
   235,'1 ',   1,   3,  28,    18.981,     5.378,     0.000,     0.000,     0.000,     0.000,   1,    1,  0,     0.000,     0.000,   0
   235,'2 ',   1,   3,  28,     8.157,     2.311,     0.000,     0.000,     0.000,     0.000,   1,    1,  0,     0.000,     0.000,   0
   236,'1 ',   1,   3,  28,     0.564,     0.160,     0.000,     0.000,     0.000,     0.000,   1,    1,  0,     0.000,     0.000,   0
   237,'1 ',   1,   3,  27,    64.557,    18.291,     0.000,     0.000,     0.000,     0.000,   1,    1,  0,     0.000,     0.000,   0
   238,'1 ',   1,   3,  28,    22.002,     6.234,     0.000,     0.000,     0.000,     0.000,   1,    1,  0,     0.000,     0.000,   0
   239,'1 ',   1,   3,  27,     5.364,     1.520,     0.000,     0.000,     0.000,     0.000,   1,    1,  0,     0.000,     0.000,   0
   245,'1 ',   1,   3,  27,     0.525,     0.149,     0.000,     0.000,     0.000,     0.000,   1,    1,  0,     0.000,     0.000,   0
   245,'2 ',   1,   3,  27,     1.416,     0.401,     0.000,     0.000,     0.000,     0.000,   1,    1,  0,     0.000,     0.000,   0
   246,'1 ',   1,   3,  27,    24.591,     6.967,     0.000,     0.000,     0.000,     0.000,   1,    1,  0,     0.000,     0.000,   0
   247,'1 ',   1,   3,  27,    10.407,     2.949,     0.000,     0.000,     0.000,     0.000,   1,    1,  0,     0.000,     0.000,   0
   248,'1 ',   1,   3,  28,    10.131,     2.870,     0.000,     0.000,     0.000,     0.000,   1,    1,  0,     0.000,     0.000,   0
   249,'1 ',   1,   3,  28,    13.674,     3.874,     0.000,     0.000,     0.000,     0.000,   1,    1,  0,     0.000,     0.000,   0
   253,'1 ',   1,   3,  28,     4.866,     1.379,     0.000,     0.000,     0.000,     0.000,   1,    1,  0,     0.000,     0.000,   0
   254,'1 ',   1,   3,  27,   129.720,    36.754,     0.000,     0.000,     0.000,     0.000,   1,    1,  0,     0.000,     0.000,   0
   255,'1 ',   1,   3,  27,    14.733,     4.174,     0.000,     0.000,     0.000,     0.000,   1,    1,  0,     0.000,     0.000,   0
   256,'1 ',   1,   3,  27,    72.864,    20.645,     0.000,     0.000,     0.000,     0.000,   1,    1,  0,     0.000,     0.000,   0
   259,'1 ',   1,   3,  28,     3.465,     0.982,     0.000,     0.000,     0.000,     0.000,   1,    1,  0,     0.000,     0.000,   0
   260,'1 ',   1,   3,  28,     1.299,     0.368,     0.000,     0.000,     0.000,     0.000,   1,    1,  0,     0.000,     0.000,   0
   260,'2 ',   1,   3,  28,     4.503,     1.276,     0.000,     0.000,     0.000,     0.000,   1,    1,  0,     0.000,     0.000,   0
   264,'1 ',   1,   3,  27,    14.607,     4.139,     0.000,     0.000,     0.000,     0.000,   1,    1,  0,     0.000,     0.000,   0
   266,'1 ',   1,   3,  27,     5.016,     1.421,     0.000,     0.000,     0.000,     0.000,   1,    1,  0,     0.000,     0.000,   0
   266,'2 ',   1,   3,  27,     3.738,     1.059,     0.000,     0.000,     0.000,     0.000,   1,    1,  0,     0.000,     0.000,   0
   273,'1 ',   1,   3,  27,    10.584,     2.999,     0.000,     0.000,     0.000,     0.000,   1,    1,  0,     0.000,     0.000,   0
   275,'1 ',   1,   3,  28,     0.843,     0.239,     0.000,     0.000,     0.000,     0.000,   1,    1,  0,     0.000,     0.000,   0
   275,'2 ',   1,   3,  28,   144.447,    40.927,     0.000,     0.000,     0.000,     0.000,   1,    1,  0,     0.000,     0.000,   0
   276,'1 ',   1,   3,  28,     8.076,     2.288,     0.000,     0.000,     0.000,     0.000,   1,    1,  0,     0.000,     0.000,   0
   290,'1 ',   1,   3,  28,    22.035,     6.243,     0.000,     0.000,     0.000,     0.000,   1,    1,  0,     0.000,     0.000,   0
   293,'1 ',   1,   3,  27,     3.813,     1.080,     0.000,     0.000,     0.000,     0.000,   1,    1,  0,     0.000,     0.000,   0
   296,'1 ',   1,   3,  27,     5.985,     1.696,     0.000,     0.000,     0.000,     0.000,   1,    1,  0,     0.000,     0.000,   0
   299,'1 ',   1,   3,  28,    12.183,     3.452,     0.000,     0.000,     0.000,     0.000,   1,    1,  0,     0.000,     0.000,   0
   300,'1 ',   1,   3,  28,    10.794,     3.058,     0.000,     0.000,     0.000,     0.000,   1,    1,  0,     0.000,     0.000,   0
   301,'1 ',   1,   3,  27,    68.655,    19.452,     0.000,     0.000,     0.000,     0.000,   1,    1,  0,     0.000,     0.000,   0
   317,'1 ',   1,   3,  28,     5.046,     1.430,     0.000,     0.000,     0.000,     0.000,   1,    1,  0,     0.000,     0.000,   0
   323,'1 ',   1,   3,  27,    12.078,     3.422,     0.000,     0.000,     0.000,     0.000,   1,    1,  0,     0.000,     0.000,   0
   324,'1 ',   1,   3,  27,     8.526,     2.416,     0.000,     0.000,     0.000,     0.000,   1,    1,  0,     0.000,     0.000,   0
   325,'1 ',   1,   3,  28,     0.105,     0.030,     0.000,     0.000,     0.000,     0.000,   1,    1,  0,     0.000,     0.000,   0
   325,'2 ',   1,   3,  28,     2.793,     0.791,     0.000,     0.000,     0.000,     0.000,   1,    1,  0,     0.000,     0.000,   0
   325,'3 ',   1,   3,  28,     6.534,     1.851,     0.000,     0.000,     0.000,     0.000,   1,    1,  0,     0.000,     0.000,   0
   326,'1 ',   1,   3,  27,    75.255,    21.322,     0.000,     0.000,     0.000,     0.000,   1,    1,  0,     0.000,     0.000,   0
   327,'1 ',   1,   3,  27,     0.333,     0.094,     0.000,     0.000,     0.000,     0.000,   1,    1,  0,     0.000,     0.000,   0
   327,'2 ',   1,   3,  27,    38.985,    11.046,     0.000,     0.000,     0.000,     0.000,   1,    1,  0,     0.000,     0.000,   0
...
0 / END OF LOAD DATA, BEGIN FIXED SHUNT DATA
@!   I,'ID',STATUS,  GL,        BL
0 / END OF FIXED SHUNT DATA, BEGIN GENERATOR DATA
@!   I,'ID',      PG,        QG,        QT,        QB,     VS,    IREG,     MBASE,     ZR,         ZX,         RT,         XT,     GTAP,STAT, RMPCT,      PT,        PB,    O1,    F1,  O2,    F2,  O3,    F3,  O4,    F4,WMOD, WPF,NREG
     4,'1 ',   158.250,   -38.062,    44.940,   -30.380,1.01000,     4,   253.200, 0.00000E+0, 1.00000E+0, 0.00000E+0, 0.00000E+0,1.00000,1,  100.0,   211.000,    63.300,   1,1.0000,   0,   1.0,   0,   1.0,   0,   1.0, 1, 1.0000
     6,'1 ',    25.730,    11.957,     7.310,    -4.940,1.00000,     6,    41.160, 0.00000E+0, 1.00000E+0, 0.00000E+0, 0.00000E+0,1.00000,1,  100.0,    34.300,    10.290,   1,1.0000,   0,   1.0,   0,   1.0,   0,   1.0, 1, 1.0000
     9,'1 ',    61.870,    -2.620,    17.570,   -11.880,1.00000,     9,    99.000, 0.00000E+0, 1.00000E+0, 0.00000E+0, 0.00000E+0,1.00000,1,  100.0,    82.500,    24.750,   1,1.0000,   0,   1.0,   0,   1.0,   0,   1.0, 1, 1.0000
    11,'1 ',     9.972,     0.000,     0.000,     0.000,1.00000,    11,    12.000, 0.00000E+0, 1.00000E+0, 0.00000E+0, 0.00000E+0,1.00000,1,  100.0,    10.000,     3.000,   1,1.0000
    21,'1 ',   149.630,    -7.142,    42.490,   -28.730,1.00000,    21,   239.400, 0.00000E+0, 1.00000E+0, 0.00000E+0, 0.00000E+0,1.00000,1,  100.0,   199.500,    59.850,   1,1.0000,   0,   1.0,   0,   1.0,   0,   1.0, 1, 1.0000
    23,'1 ',   135.000,     6.819,    38.340,   -25.920,1.01000,    23,   216.000, 0.00000E+0, 1.00000E+0, 0.00000E+0, 0.00000E+0,1.00000,1,  100.0,   180.000,    54.000,   1,1.0000,   0,   1.0,   0,   1.0,   0,   1.0, 1, 1.0000
    26,'1 ',    93.150,     4.393,    26.450,   -17.880,1.00000,    26,   149.040, 0.00000E+0, 1.00000E+0, 0.00000E+0, 0.00000E+0,1.00000,1,  100.0,   124.200,    37.260,   1,1.0000,   0,   1.0,   0,   1.0,   0,   1.0, 1, 1.0000
    33,'1 ',   208.500,   101.435,    59.210,   -40.030,1.00000,    33,   333.600, 0.00000E+0, 1.00000E+0, 0.00000E+0, 0.00000E+0,1.00000,1,  100.0,   278.000,    83.400,   1,1.0000,   0,   1.0,   0,   1.0,   0,   1.0, 1, 1.0000
    35,'1 ',    67.500,    16.886,    19.170,   -12.960,1.00000,    35,   108.000, 0.00000E+0, 1.00000E+0, 0.00000E+0, 0.00000E+0,1.00000,1,  100.0,    90.000,    27.000,   1,1.0000,   0,   1.0,   0,   1.0,   0,   1.0, 1, 1.0000
    39,'1 ',   110.630,     5.139,    31.420,   -21.240,1.00000,    39,   177.000, 0.00000E+0, 1.00000E+0, 0.00000E+0, 0.00000E+0,1.00000,1,  100.0,   147.500,    44.250,   1,1.0000,   0,   1.0,   0,   1.0,   0,   1.0, 1, 1.0000
    42,'1 ',     0.000,   -10.549,    25.960,   -17.550,1.00000,    42,   146.280, 0.00000E+0, 1.00000E+0, 0.00000E+0, 0.00000E+0,1.00000,0,  100.0,   121.900,    36.570,   1,1.0000,   0,   1.0,   0,   1.0,   0,   1.0, 1, 1.0000
    43,'1 ',    44.100,    16.810,    12.520,    -8.470,1.00000,    43,    70.560, 0.00000E+0, 1.00000E+0, 0.00000E+0, 0.00000E+0,1.00000,1,  100.0,    58.800,    17.640,   1,1.0000,   0,   1.0,   0,   1.0,   0,   1.0, 1, 1.0000
    48,'1 ',     0.000,     0.000,   165.530,   -36.100,1.00000,    48,   390.240, 0.00000E+0, 1.01700E-1, 0.00000E+0, 0.00000E+0,1.00000,0,  100.0,   325.200,    97.560,   1,1.0000
    49,'1 ',     0.000,     0.000,   165.530,   -36.100,1.00000,    49,   390.240, 0.00000E+0, 1.34900E-1, 0.00000E+0, 0.00000E+0,1.00000,0,  100.0,   325.200,    97.560,   1,1.0000
    50,'1 ',    89.150,    10.925,    45.500,    -9.920,1.00000,    50,   107.280, 0.00000E+0, 2.77700E-1, 0.00000E+0, 0.00000E+0,1.00000,1,  100.0,    89.400,    26.820,   1,1.0000
    51,'1 ',    89.150,     8.797,    45.500,    -9.920,1.00000,    51,   107.280, 0.00000E+0, 3.17400E-1, 0.00000E+0, 0.00000E+0,1.00000,1,  100.0,    89.400,    26.820,   1,1.0000
    52,'1 ',    89.150,    11.064,    45.500,    -9.920,1.00000,    52,   107.280, 0.00000E+0, 2.78100E-1, 0.00000E+0, 0.00000E+0,1.00000,1,  100.0,    89.400,    26.820,   1,1.0000
    53,'1 ',     0.000,     0.000,    91.010,   -19.850,1.00000,    53,   214.560, 0.00000E+0, 1.68700E-1, 0.00000E+0, 0.00000E+0,1.00000,0,  100.0,   178.800,    53.640,   1,1.0000
    57,'1 ',     0.000,    -7.656,    25.560,   -17.280,1.00000,    57,   144.000, 0.00000E+0, 1.00000E+0, 0.00000E+0, 0.00000E+0,1.00000,0,  100.0,   120.000,    36.000,   1,1.0000,   0,   1.0,   0,   1.0,   0,   1.0, 1, 1.0000
    59,'1 ',     0.000,     0.000,     2.850,    -0.620,1.04000,    59,     6.720, 0.00000E+0, 2.27700E-1, 0.00000E+0, 0.00000E+0,1.00000,0,  100.0,     5.600,     1.680,   1,1.0000
    60,'1 ',     0.000,     0.000,     1.020,    -0.220,1.04000,    60,     2.400, 0.00000E+0, 1.63000E-1, 0.00000E+0, 0.00000E+0,1.00000,0,  100.0,     2.000,     0.600,   1,1.0000
    62,'1 ',     0.000,     0.000,     0.000,     0.000,1.01000,    62,     1.800, 0.00000E+0, 1.00000E+0, 0.00000E+0, 0.00000E+0,1.00000,0,  100.0,     1.500,     0.450,   1,1.0000
    63,'1 ',     0.000,     0.000,     0.000,     0.000,1.01000,    63,   276.000, 0.00000E+0, 1.00000E+0, 0.00000E+0, 0.00000E+0,1.00000,0,  100.0,   230.000,    69.000,   1,1.0000
    66,'1 ',   106.880,    21.572,    30.350,   -20.520,1.00000,    66,   171.000, 0.00000E+0, 1.00000E+0, 0.00000E+0, 0.00000E+0,1.00000,1,  100.0,   142.500,    42.750,   1,1.0000,   0,   1.0,   0,   1.0,   0,   1.0, 1, 1.0000
    70,'1 ',   120.380,    57.969,    34.190,   -23.110,1.04000,    70,   192.600, 0.00000E+0, 1.00000E+0, 0.00000E+0, 0.00000E+0,1.00000,1,  100.0,   160.500,    48.150,   1,1.0000,   0,   1.0,   0,   1.0,   0,   1.0, 1, 1.0000
    72,'1 ',   191.594,    63.085,    97.800,   -21.330,1.01000,    72,   230.560, 0.00000E+0, 3.08200E-1, 0.00000E+0, 0.00000E+0,1.00000,1,  100.0,   192.130,    57.640,   1,1.0000
    73,'1 ',   191.594,    55.837,    97.800,   -21.330,1.01000,    73,   230.560, 0.00000E+0, 1.94800E-1, 0.00000E+0, 0.00000E+0,1.00000,1,  100.0,   192.130,    57.640,   1,1.0000
    74,'1 ',   191.594,    55.171,    97.800,   -21.330,1.01000,    74,   230.560, 0.00000E+0, 2.09600E-1, 0.00000E+0, 0.00000E+0,1.00000,1,  100.0,   192.130,    57.640,   1,1.0000
    75,'1 ',   191.594,    62.291,    97.800,   -21.330,1.01000,    75,   230.560, 0.00000E+0, 1.23700E-1, 0.00000E+0, 0.00000E+0,1.00000,1,  100.0,   192.130,    57.640,   1,1.0000
    76,'1 ',     0.000,     0.000,    97.800,   -21.330,1.01000,    76,   230.560, 0.00000E+0, 1.06600E-1, 0.00000E+0, 0.00000E+0,1.00000,0,  100.0,   192.130,    57.640,   1,1.0000
    77,'1 ',     0.000,     0.000,    97.800,   -21.330,1.01000,    77,   230.560, 0.00000E+0, 1.53800E-1, 0.00000E+0, 0.00000E+0,1.00000,0,  100.0,   192.130,    57.640,   1,1.0000
    78,'1 ',    95.233,    32.738,    48.610,   -10.600,1.01000,    78,   114.600, 0.00000E+0, 2.85200E-1, 0.00000E+0, 0.00000E+0,1.00000,1,  100.0,    95.500,    28.650,   1,1.0000
    79,'1 ',    95.233,  -337.260,    48.610,   -10.600,1.01000,    79,   114.600, 0.00000E+0, 1.72600E-1, 0.00000E+0, 0.00000E+0,1.00000,1,  100.0,    95.500,    28.650,   1,1.0000
    80,'1 ',    95.233,    28.611,    48.610,   -10.600,1.01000,    80,   114.600, 0.00000E+0, 1.54300E-1, 0.00000E+0, 0.00000E+0,1.00000,1,  100.0,    95.500,    28.650,   1,1.0000
    81,'1 ',     0.000,     0.000,   145.830,   -31.800,1.01000,    81,   343.800, 0.00000E+0, 1.49600E-1, 0.00000E+0, 0.00000E+0,1.00000,0,  100.0,   286.500,    85.950,   1,1.0000
    82,'1 ',   112.500,   -20.496,    31.950,   -21.600,1.00000,    82,   180.000, 0.00000E+0, 1.00000E+0, 0.00000E+0, 0.00000E+0,1.00000,1,  100.0,   150.000,    45.000,   1,1.0000,   0,   1.0,   0,   1.0,   0,   1.0, 1, 1.0000
    84,'1 ',    86.620,   140.303,    24.600,   -16.630,1.04000,    84,   138.600, 0.00000E+0, 1.00000E+0, 0.00000E+0, 0.00000E+0,1.00000,1,  100.0,   115.500,    34.650,   1,1.0000,   0,   1.0,   0,   1.0,   0,   1.0, 1, 1.0000
    88,'1 ',    56.250,    19.446,    15.970,   -10.800,1.00000,    88,    90.000, 0.00000E+0, 1.00000E+0, 0.00000E+0, 0.00000E+0,1.00000,1,  100.0,    75.000,    22.500,   1,1.0000,   0,   1.0,   0,   1.0,   0,   1.0, 1, 1.0000
    90,'1 ',   114.370,    66.856,    32.480,   -21.960,1.02000,    90,   183.000, 0.00000E+0, 1.00000E+0, 0.00000E+0, 0.00000E+0,1.00000,1,  100.0,   152.500,    45.750,   1,1.0000,   0,   1.0,   0,   1.0,   0,   1.0, 1, 1.0000
    90,'2 ',    27.000,    15.783,     7.670,    -5.180,1.02000,    90,    43.200, 0.00000E+0, 1.00000E+0, 0.00000E+0, 0.00000E+0,1.00000,1,  100.0,    36.000,    10.800,   1,1.0000,   0,   1.0,   0,   1.0,   0,   1.0, 1, 1.0000
    95,'1 ',     0.000,     0.000,   199.430,   -43.490,1.02000,    95,   470.160, 0.00000E+0, 1.06400E-1, 0.00000E+0, 0.00000E+0,1.00000,0,  100.0,   391.800,   117.540,   1,1.0000
    96,'1 ',     0.000,     0.000,   199.430,   -43.490,1.02000,    96,   470.160, 0.00000E+0, 2.27500E-1, 0.00000E+0, 0.00000E+0,1.00000,0,  100.0,   391.800,   117.540,   1,1.0000
    97,'1 ',     0.000,     0.000,   199.430,   -43.490,1.02000,    97,   470.160, 0.00000E+0, 2.00400E-1, 0.00000E+0, 0.00000E+0,1.00000,0,  100.0,   391.800,   117.540,   1,1.0000
   104,'1 ',   150.450,   -96.644,    42.730,   -28.890,1.00000,   104,   240.720, 0.00000E+0, 1.00000E+0, 0.00000E+0, 0.00000E+0,1.00000,1,  100.0,   200.600,    60.180,   1,1.0000,   0,   1.0,   0,   1.0,   0,   1.0, 1, 1.0000
   110,'1 ',     0.000,    46.430,    46.430,   -31.390,1.04000,   110,   261.600, 0.00000E+0, 1.00000E+0, 0.00000E+0, 0.00000E+0,1.00000,0,  100.0,   218.000,    65.400,   1,1.0000,   0,   1.0,   0,   1.0,   0,   1.0, 1, 1.0000
   114,'1 ',    83.097,    48.874,    42.420,    -9.250,1.02000,   114,   100.000, 0.00000E+0, 2.94400E-1, 0.00000E+0, 0.00000E+0,1.00000,1,  100.0,    83.330,    25.000,   1,1.0000
   115,'1 ',   166.205,    69.677,    84.830,   -18.500,1.02000,   115,   200.000, 0.00000E+0, 1.50800E-1, 0.00000E+0, 0.00000E+0,1.00000,1,  100.0,   166.670,    50.000,   1,1.0000
   133,'1 ',    59.700,    -2.741,    16.950,   -11.460,1.01000,   133,    95.520, 0.00000E+0, 1.00000E+0, 0.00000E+0, 0.00000E+0,1.00000,1,  100.0,    79.600,    23.880,   1,1.0000,   0,   1.0,   0,   1.0,   0,   1.0, 1, 1.0000
   147,'1 ',     0.000,     0.000,     2.800,    -0.730,0.99000,   147,     7.200, 0.00000E+0, 2.49200E-1, 0.00000E+0, 0.00000E+0,1.00000,0,  100.0,     6.000,     1.800,   1,1.0000
   148,'1 ',   573.575,    -4.614,   335.520,   -87.840,0.99000,   148,   864.000, 0.00000E+0, 1.77000E-1, 0.00000E+0, 0.00000E+0,1.00000,1,  100.0,   720.000,   216.000,   1,1.0000
   150,'1 ',    60.000,    -6.994,    17.040,   -11.520,1.00000,   150,    96.000, 0.00000E+0, 1.00000E+0, 0.00000E+0, 0.00000E+0,1.00000,1,  100.0,    80.000,    24.000,   1,1.0000,   0,   1.0,   0,   1.0,   0,   1.0, 1, 1.0000
   153,'1 ',   101.550,    26.498,    28.840,   -19.500,1.02000,   153,   162.480, 0.00000E+0, 1.00000E+0, 0.00000E+0, 0.00000E+0,1.00000,1,  100.0,   135.400,    40.620,   1,1.0000,   0,   1.0,   0,   1.0,   0,   1.0, 1, 1.0000
   162,'1 ',   112.500,     3.280,    31.950,   -21.600,1.00000,   162,   180.000, 0.00000E+0, 1.00000E+0, 0.00000E+0, 0.00000E+0,1.00000,1,  100.0,   150.000,    45.000,   1,1.0000,   0,   1.0,   0,   1.0,   0,   1.0, 1, 1.0000
   167,'1 ',    22.500,    30.489,     6.390,    -4.320,1.04000,   167,    36.000, 0.00000E+0, 1.00000E+0, 0.00000E+0, 0.00000E+0,1.00000,1,  100.0,    30.000,     9.000,   1,1.0000,   0,   1.0,   0,   1.0,   0,   1.0, 1, 1.0000
...